# =====================================================================
# | Parameters for Pacanowski&Philander (1981) vertical mixing scheme |
# =====================================================================
 &KPP_PARM01
 KPPwriteState=.FALSE.,
 minKPPhbl = 10.,
 Ricr = 0.3,
 &
