# Packages
 &PACKAGES
 useFLT=.TRUE.,
 useOffline=.TRUE.,
 &
